Version 4
SHEET 1 984 680
WIRE -528 -208 -864 -208
WIRE 352 -208 -208 -208
WIRE 928 -208 352 -208
WIRE 928 -192 928 -208
WIRE 432 -160 256 -160
WIRE 560 -160 432 -160
WIRE 560 -144 560 -160
WIRE -528 -128 -864 -128
WIRE -176 -128 -208 -128
WIRE 432 -128 432 -160
WIRE -864 -96 -864 -128
WIRE 928 -80 928 -112
WIRE 352 0 352 -208
WIRE 256 16 256 -160
WIRE 320 16 256 16
WIRE 432 32 432 -64
WIRE 432 32 384 32
WIRE 560 32 560 -64
WIRE 560 32 432 32
WIRE 656 32 560 32
WIRE 816 32 736 32
WIRE 896 32 816 32
WIRE -320 48 -400 48
WIRE -176 48 -176 -128
WIRE -176 48 -256 48
WIRE -128 48 -176 48
WIRE -16 48 -48 48
WIRE 128 48 -16 48
WIRE 320 48 128 48
WIRE -400 96 -400 48
WIRE -16 96 -16 48
WIRE 128 96 128 48
WIRE 256 96 256 16
WIRE 816 96 816 32
WIRE -400 224 -400 176
WIRE -16 224 -16 160
WIRE -16 224 -400 224
WIRE 128 224 128 176
WIRE 128 224 -16 224
WIRE 256 224 256 176
WIRE 256 224 128 224
WIRE 352 224 352 64
WIRE 352 224 256 224
WIRE 560 224 352 224
WIRE 816 224 816 160
WIRE 816 224 560 224
WIRE 560 256 560 224
FLAG 928 -80 0
FLAG 560 256 0
FLAG 896 32 ADC
FLAG -864 -96 0
SYMBOL res -32 32 R90
WINDOW 0 0 56 VBottom 2
WINDOW 3 32 56 VTop 2
SYMATTR InstName R5
SYMATTR Value 10k
SYMBOL res 144 192 R180
WINDOW 0 36 76 Left 2
WINDOW 3 36 40 Left 2
SYMATTR InstName R1
SYMATTR Value 100k
SYMBOL res 272 192 R180
WINDOW 0 36 76 Left 2
WINDOW 3 36 40 Left 2
SYMATTR InstName R2
SYMATTR Value 1k
SYMBOL cap -32 96 R0
SYMATTR InstName C1
SYMATTR Value 100n
SYMBOL Opamps\\LTC1050 352 -32 R0
SYMATTR InstName U1
SYMBOL cap 416 -128 R0
SYMATTR InstName C4
SYMATTR Value 1µ
SYMBOL res 544 -160 R0
SYMATTR InstName R3
SYMATTR Value 100k
SYMBOL res 752 16 R90
WINDOW 0 0 56 VBottom 2
WINDOW 3 32 56 VTop 2
SYMATTR InstName R6
SYMATTR Value 1k
SYMBOL cap 800 96 R0
SYMATTR InstName C2
SYMATTR Value 100n
SYMBOL voltage 928 -208 R0
SYMATTR InstName V1
SYMATTR Value 5
SYMBOL Capteur -368 -176 R0
SYMATTR InstName X1
SYMBOL voltage -864 -224 R0
WINDOW 0 30 -9 Left 2
WINDOW 3 16 154 Left 2
WINDOW 123 0 0 Left 2
WINDOW 39 0 0 Left 2
SYMATTR InstName V2
SYMATTR Value PULSE(0 1 0.2 0.1 0.1 20)
SYMBOL cap -256 32 R90
WINDOW 0 0 32 VBottom 2
WINDOW 3 32 32 VTop 2
SYMATTR InstName C3
SYMATTR Value 1p
SYMBOL voltage -400 80 R0
WINDOW 123 0 0 Left 2
WINDOW 39 0 0 Left 2
SYMATTR InstName V3
SYMATTR Value SINE(0 325 50)
TEXT 96 408 Left 2 !.tran 2
TEXT 288 48 Left 2 ;V+
TEXT 272 408 Left 2 !;ac dec 100 0.1 1G
